Version 4
SHEET 1 880 680
WIRE 48 80 -32 80
WIRE 192 80 128 80
WIRE 208 80 192 80
WIRE -32 144 -32 80
WIRE 208 144 208 80
WIRE -32 272 -32 224
WIRE 208 272 208 208
WIRE 208 272 -32 272
WIRE -32 288 -32 272
FLAG -32 288 0
FLAG 192 80 Vout
SYMBOL voltage -32 128 R0
WINDOW 0 47 44 Left 2
WINDOW 3 9 114 Left 2
WINDOW 123 47 73 Left 2
WINDOW 39 0 0 Left 2
SYMATTR InstName V1
SYMATTR Value SINE(0 {amp} {freq})
SYMATTR Value2 AC 1
SYMBOL res 144 64 R90
WINDOW 0 0 56 VBottom 2
WINDOW 3 32 56 VTop 2
SYMATTR InstName R1
SYMATTR Value 1k
SYMBOL cap 192 144 R0
SYMATTR InstName C1
SYMATTR Value 100n
TEXT 352 256 Left 2 ;.step param amp 100m 1 10m
TEXT 352 288 Left 2 !.param amp=1
TEXT 352 64 Left 2 !;ac oct 100 10 100k
TEXT 352 224 Left 2 !.step param freq list 1k 2k 3k 5k 7k 10k
TEXT 352 192 Left 2 !.param freq=1k
TEXT 352 88 Left 2 !.tran 1m
TEXT 352 40 Left 2 ;SIMULERING
TEXT 352 160 Left 2 ;PARAMETRAR
